Circuit: * C:\Users\yurra\Documents\memristive-brain\test-circuits\LTSPICE\Main_device\In-Ex-Pulse.asc

Limiting rise time of source v4 to 0.002
Limiting fall time of source v4 to 0.002
Limiting rise time of source v3 to 0.002
Limiting fall time of source v3 to 0.002
Direct Newton iteration failed to find .op point.  (Use ".option noopiter" to skip.)
Starting Gmin stepping
Gmin = 10
Gmin = 1.07374
Gmin = 0.115292
Gmin = 0.0123794
Gmin = 0.00132923
Gmin = 0.000142725
Gmin = 1.5325e-005
Gmin = 1.6455e-006
Gmin = 1.76685e-007
Gmin = 1.89714e-008
Gmin = 2.03704e-009
Gmin = 2.18725e-010
Gmin = 2.34854e-011
Gmin = 2.52173e-012
Gmin = 2.70769e-013
Gmin = 0
Gmin stepping succeeded in finding the operating point.


Date: Mon Aug 21 12:13:03 2017
Total elapsed time: 61.458 seconds.

tnom = 27
temp = 27
method = modified trap
totiter = 2272897
traniter = 2272482
tranpoints = 739105
accept = 551896
rejected = 187209
matrix size = 56
fillins = 89
solver = Normal
Thread vector: 15.9/10.9[3] 4.9/2.9[3] 1.4/1.9[1] 0.8/1.1[1]  2592/500
Matrix Compiler1: 7.85 KB object code size  5.3/3.6/[0.8]
Matrix Compiler2: 8.18 KB object code size  1.9/2.1/[0.7]

