Circuit: * C:\Users\yurra\Documents\memristive-brain\test-circuits\LTSPICE\leaky-intergator\Leak-5v2.asc

Direct Newton iteration failed to find .op point.  (Use ".option noopiter" to skip.)
Starting Gmin stepping
Gmin = 10
Gmin = 1.07374
Gmin = 0.115292
Gmin = 0.0123794
Gmin = 0.00132923
Gmin = 0.000142725
Gmin = 1.5325e-005
Gmin = 1.6455e-006
Gmin = 1.76685e-007
Gmin = 1.89714e-008
Gmin = 2.03704e-009
Gmin = 2.18725e-010
Gmin = 2.34854e-011
Gmin = 2.52173e-012
Gmin = 2.70769e-013
Gmin = 0
Gmin stepping succeeded in finding the operating point.


Date: Tue Jul 17 11:45:52 2018
Total elapsed time: 0.483 seconds.

tnom = 27
temp = 27
method = modified trap
totiter = 16378
traniter = 15974
tranpoints = 7821
accept = 7132
rejected = 689
matrix size = 26
fillins = 13
solver = Normal
Matrix Compiler1: 1.93 KB object code size  1.5/0.5/[0.3]
Matrix Compiler2: 2.94 KB object code size  0.7/0.9/[0.5]

