Circuit: * C:\memristive_brain_repository\memristive-brain\test-circuits\LTSPICE\leaky-intergator\Leak-5v2.asc

WARNING: Less than two connections to node VIN.  This node is used by V3.
WARNING: Less than two connections to node NC_01.  This node is used by R10.
WARNING: Less than two connections to node NC_02.  This node is used by R11.
Direct Newton iteration failed to find .op point.  (Use ".option noopiter" to skip.)
Starting Gmin stepping
Gmin = 10
Gmin = 1.07374
Gmin = 0.115292
Gmin = 0.0123794
Gmin = 0.00132923
Gmin = 0.000142725
Gmin = 1.5325e-005
Gmin = 1.6455e-006
Gmin = 1.76685e-007
Gmin = 1.89714e-008
Gmin = 2.03704e-009
Gmin = 2.18725e-010
Gmin = 2.34854e-011
Gmin = 2.52173e-012
Gmin = 2.70769e-013
Gmin = 0
Gmin stepping succeeded in finding the operating point.


Date: Tue Sep 04 12:35:10 2018
Total elapsed time: 0.485 seconds.

tnom = 27
temp = 27
method = modified trap
totiter = 15801
traniter = 15398
tranpoints = 7642
accept = 6982
rejected = 660
matrix size = 32
fillins = 19
solver = Normal
Matrix Compiler1: 2.54 KB object code size  1.3/0.6/[0.4]
Matrix Compiler2: 3.66 KB object code size  1.0/1.1/[0.6]

