Circuit: * C:\Users\yurra\Documents\memristive-brain\test-circuits\LTSPICE\leaky-intergator\Leak-5v2.asc

Direct Newton iteration failed to find .op point.  (Use ".option noopiter" to skip.)
Starting Gmin stepping
Gmin = 10
Gmin = 1.07374
Gmin = 0.115292
Gmin = 0.0123794
Gmin = 0.00132923
Gmin = 0.000142725
Gmin = 1.5325e-005
Gmin = 1.6455e-006
Gmin = 1.76685e-007
Gmin = 1.89714e-008
Gmin = 2.03704e-009
Gmin = 2.18725e-010
Gmin = 2.34854e-011
Gmin = 2.52173e-012
Gmin = 2.70769e-013
Gmin = 0
Gmin stepping succeeded in finding the operating point.


Date: Mon Jul 02 20:42:27 2018
Total elapsed time: 0.162 seconds.

tnom = 27
temp = 27
method = modified trap
totiter = 4016
traniter = 3610
tranpoints = 1742
accept = 1716
rejected = 26
matrix size = 26
fillins = 13
solver = Normal
Matrix Compiler1: 1.93 KB object code size  1.3/0.6/[0.3]
Matrix Compiler2: 2.94 KB object code size  0.6/0.8/[0.6]

