Circuit: * C:\Users\yurra\Documents\memristive-brain\test-circuits\LTSPICE\Memristor_test\Leak-5.asc

V3: Removing PWL point (0.15,0)
V3: Removing PWL point (0.3,0)
Direct Newton iteration failed to find .op point.  (Use ".option noopiter" to skip.)
Starting Gmin stepping
Gmin = 10
Gmin = 1.07374
Gmin = 0.115292
Gmin = 0.0123794
Gmin = 0.00132923
Gmin = 0.000142725
Gmin = 1.5325e-005
Gmin = 1.6455e-006
Gmin = 1.76685e-007
Gmin = 1.89714e-008
Gmin = 2.03704e-009
Gmin = 2.18725e-010
Gmin = 2.34854e-011
Gmin = 2.52173e-012
Gmin = 2.70769e-013
Gmin = 0
Gmin stepping succeeded in finding the operating point.


Date: Tue Mar 06 21:15:03 2018
Total elapsed time: 0.228 seconds.

tnom = 27
temp = 27
method = modified trap
totiter = 12543
traniter = 12074
tranpoints = 3875
accept = 3054
rejected = 821
matrix size = 25
fillins = 16
solver = Normal
Matrix Compiler1: 2.10 KB object code size  1.2/0.5/[0.2]
Matrix Compiler2: 2.93 KB object code size  0.6/0.8/[0.6]

