Circuit: * C:\Program Files\LTC\Projects\Inhibitor\Leak-5.asc

Limiting rise time of source v3 to 0.0005
Limiting fall time of source v3 to 0.0005
Direct Newton iteration failed to find .op point.  (Use ".option noopiter" to skip.)
Starting Gmin stepping
Gmin = 10
Gmin = 1.07374
Gmin = 0.115292
Gmin = 0.0123794
Gmin = 0.00132923
Gmin = 0.000142725
Gmin = 1.5325e-005
Gmin = 1.6455e-006
Gmin = 1.76685e-007
Gmin = 1.89714e-008
Gmin = 2.03704e-009
Gmin = 2.18725e-010
Gmin = 2.34854e-011
Gmin = 2.52173e-012
Gmin = 2.70769e-013
Gmin = 0
Gmin stepping succeeded in finding the operating point.


Date: Thu Jan 18 23:06:56 2018
Total elapsed time: 1.685 seconds.

tnom = 27
temp = 27
method = modified trap
totiter = 70434
traniter = 69965
tranpoints = 21237
accept = 15582
rejected = 5655
matrix size = 25
fillins = 16
solver = Normal
Matrix Compiler1: 2.10 KB object code size  2.0/0.7/[0.5]
Matrix Compiler2:     217 opcodes  0.8/[0.8]/1.4

