Circuit: * C:\Users\YurBurGer\memristive-brain\dopamine-modulation\main_device_schematics\Draft1.asc

Questionable use of curly braces in "bx 0 x  i={if(((({beta}*(v(pl,mn))+0.5*({alpha}-{beta})*(abs((v(pl,mn))+{vt})-abs((v(pl,mn))-{vt})))>0)&(v(x)<{{roff}})),({beta}*(v(pl,mn))+0.5*({alpha}-{beta})*(abs((v(pl,mn))+{vt})-abs((v(pl,mn))-{vt}))),if(((({beta}*(v(pl,mn))+0.5*({alpha}-{beta})*(abs((v(pl,mn))+{vt})-abs((v(pl,mn))-{vt})))<0)&(v(x)>{{ron}})),({beta}*(v(pl,mn))+0.5*({alpha}-{beta})*(abs((v(pl,mn))+{vt})-abs((v(pl,mn))-{vt}))),0))}"
    Error: undefined symbol in: "if(((((beta)*([v](pl,mn))+0.5*((alpha)-(beta))*(abs((v(pl,mn))+(vt))-abs((v(pl,mn))-(vt))))>0)&(v(x)<((roff)))),((beta)*(v(pl,mn))+0.5*((alpha)-(beta))*(abs((v(pl,mn))+(vt))-abs((v(pl,mn))-(vt)))),if(((((beta)*(v(pl,mn))+0.5*((alpha)-(beta))*(abs((v(pl,mn))+(vt))-abs((v(pl,mn))-(vt))))<0)&(v(x)>((ron)))),((beta)*(v(pl,mn))+0.5*((alpha)-(beta))*(abs((v(pl,mn))+(vt))-abs((v(pl,mn))-(vt)))),0))"
Questionable use of curly braces in "b§rmem pl mn r={v(x)}"
    Error: undefined symbol in: "[v](x)"
WARNING: Node U2:X is floating.
WARNING: Node N001 is floating.

Singular matrix:  Check node n001
   Iteration No. 1
Direct Newton iteration failed to find .op point.  (Use ".option noopiter" to skip.)
Starting Gmin stepping
Gmin = 10
Gmin = 1.07374
Gmin = 0.115292
Gmin = 0.0123794
Gmin = 0.00132923
Gmin = 0.000142725
Gmin = 1.5325e-005
Gmin = 1.6455e-006
Gmin = 1.76685e-007
Gmin = 1.89714e-008
Gmin = 2.03704e-009
Gmin = 2.18725e-010
Gmin = 2.34854e-011
Gmin = 2.52173e-012
Gmin = 2.70769e-013
Gmin = 0
Gmin stepping succeeded in finding the operating point.


Date: Tue Sep 19 18:46:20 2017
Total elapsed time: 93.237 seconds.

tnom = 27
temp = 27
method = modified trap
totiter = 6368244
traniter = 6367889
tranpoints = 1499481
accept = 1125011
rejected = 374470
matrix size = 15
fillins = 1
solver = Normal
Matrix Compiler1: 618 bytes object code size  0.4/0.2/[0.1]
Matrix Compiler2:      96 opcodes  0.2/[0.2]/0.3

