Circuit: * Z:\home\altur\Documents\Projects\MemB\memristive-brain\test-circuits\LTSPICE\combined_sch\combined_schematicV3.asc

Limiting rise time of source v9 to 4e-005
Limiting fall time of source v9 to 4e-005
Limiting rise time of source v8 to 4e-005
Limiting fall time of source v8 to 4e-005
Limiting rise time of source v5 to 4e-005
Limiting fall time of source v5 to 4e-005
WARNING: Less than two connections to node NC_01.  This node is used by V5.
Direct Newton iteration failed to find .op point.  (Use ".option noopiter" to skip.)
Starting Gmin stepping
Gmin = 10
Gmin = 1.07374
Gmin = 0.115292
Gmin = 0.0123794
Gmin = 0.00132923
Gmin = 0.000142725
vernier = 0.5
vernier = 0.666667
Gmin = 5.34392e-005
vernier = 0.888888
vernier = 1
Gmin = 7.53781e-006
Gmin = 8.09366e-007
Gmin = 8.6905e-008
Gmin = 9.33136e-009
Gmin = 1.00195e-009
Gmin = 1.07583e-010
Gmin = 1.15517e-011
Gmin = 1.24035e-012
Gmin = 1.33182e-013
Gmin = 0
Gmin stepping succeeded in finding the operating point.


Date: Wed Mar 13 16:00:36 2019
Total elapsed time: 7.847 seconds.

tnom = 27
temp = 27
method = modified trap
totiter = 102160
traniter = 101590
tranpoints = 29021
accept = 22118
rejected = 6903
matrix size = 213
fillins = 304
solver = Normal
Thread vector: 70.2/38.6[4] 15.3/7.5[4] 4.6/5.9[1] 3.4/82.4[1]  2592/500
Matrix Compiler1: 31.28 KB object code size  13.9/6.6/[4.7]
Matrix Compiler2: 27.24 KB object code size  7.3/7.8/[4.7]

