Circuit: * C:\Users\yurra\Documents\memristive-brain\test-circuits\LTSPICE\combined_sch\combined_schematicV2.asc

Limiting rise time of source v5 to 1e-008
Limiting fall time of source v5 to 1e-008
WARNING: Node N001 is floating and connected to current source G:U16:MEM.  It's .op solution is defined solely by a .ic statement.

Direct Newton iteration failed to find .op point.  (Use ".option noopiter" to skip.)
Starting Gmin stepping
Gmin = 10
Gmin = 1.07374
vernier = 0.5
vernier = 0.25
vernier = 0.125
vernier = 0.0625
Gmin = 0.995033
vernier = 0.03125
vernier = 0.015625
vernier = 0.0078125
vernier = 0.00390625
Gmin = 0.999816
vernier = 0.00195313
vernier = 0.000976563
vernier = 0.000488281
Gmin = 0
Gmin stepping failed

Starting source stepping with srcstepmethod=0
Source Step = 3.0303%
vernier = 0.25
Source Step = 0.0177557%
Starting source stepping with srcstepmethod=1
Source Step = 3.0303%
vernier = 0.25
Source stepping failed

Pseudo Transient succeeded in finding the operating point at 405.085 ms.
Heightened Def Con from 0.112665 to 0.112665
Heightened Def Con from 0.476345 to 0.476345
Heightened Def Con from 0.516749 to 0.516749
Heightened Def Con from 0.536945 to 0.536945
Heightened Def Con from 0.819636 to 0.819636
Heightened Def Con from 0.981144 to 0.981144

Date: Mon Aug 13 13:53:53 2018
Total elapsed time: 28.360 seconds.

tnom = 27
temp = 27
method = modified trap
totiter = 167342
traniter = 154432
tranpoints = 54326
accept = 42736
rejected = 11727
matrix size = 270
fillins = 1269
solver = Normal
Thread vector: 77.3/41.7[4] 22.2/13.3[4] 8.5/6.7[4] 4.8/7.7[1]  2592/500
Matrix Compiler1: 94.90 KB object code size  56.7/25.8/[16.9]
Matrix Compiler2: 52.73 KB object code size  25.4/19.3/[5.4]

