Circuit: * C:\Users\yurra\Documents\memristive-brain\test-circuits\LTSPICE\combined_sch\combined_schematicV2.asc

Limiting rise time of source v5 to 1e-008
Limiting fall time of source v5 to 1e-008
WARNING: Node N001 is floating and connected to current source G:U16:MEM.  It's .op solution is defined solely by a .ic statement.

Direct Newton iteration failed to find .op point.  (Use ".option noopiter" to skip.)
Starting Gmin stepping
Gmin = 10
Gmin = 1.07374
vernier = 0.5
vernier = 0.25
vernier = 0.125
vernier = 0.0625
Gmin = 0.995033
vernier = 0.03125
vernier = 0.015625
vernier = 0.0078125
vernier = 0.00390625
Gmin = 0.999816
vernier = 0.00195313
vernier = 0.000976563
vernier = 0.000488281
Gmin = 0
Gmin stepping failed

Starting source stepping with srcstepmethod=0
Source Step = 3.0303%
vernier = 0.25
Source Step = 0.0177557%
Starting source stepping with srcstepmethod=1
Source Step = 3.0303%
vernier = 0.25
Source stepping failed

Pseudo Transient succeeded in finding the operating point at 359.167 ms.
Heightened Def Con from 0.789413 to 0.789413
Heightened Def Con from 0.991478 to 0.991478

Date: Thu Aug 09 16:32:50 2018
Total elapsed time: 35.476 seconds.

tnom = 27
temp = 27
method = modified trap
totiter = 203412
traniter = 190597
tranpoints = 65012
accept = 49910
rejected = 15232
matrix size = 270
fillins = 1492
solver = Normal
Thread vector: 69.2/47.2[4] 21.6/12.2[4] 9.2/6.5[4] 4.8/3.4[3]  2592/500
Matrix Compiler1: 124.96 KB object code size  76.8/31.3/[20.1]
Matrix Compiler2: 56.75 KB object code size  14.0/11.7/[5.4]

