Circuit: * C:\Users\yurra\Documents\memristive-brain\test-circuits\LTSPICE\combined_sch\Draft1.asc

V6: both pins shorted together -- ignoring.
WARNING: Node NC_01 is floating.

Direct Newton iteration failed to find .op point.  (Use ".option noopiter" to skip.)
Starting Gmin stepping
Gmin = 10
Gmin = 1.07374
Gmin = 0.115292
Gmin = 0.0123794
Gmin = 0.00132923
Gmin = 0.000142725
Gmin = 1.5325e-005
Gmin = 1.6455e-006
Gmin = 1.76685e-007
Gmin = 1.89714e-008
Gmin = 2.03704e-009
Gmin = 2.18725e-010
Gmin = 2.34854e-011
Gmin = 2.52173e-012
Gmin = 2.70769e-013
Gmin = 0
Gmin stepping succeeded in finding the operating point.


Date: Mon Jun 18 16:34:25 2018
Total elapsed time: 11.459 seconds.

tnom = 27
temp = 27
method = modified trap
totiter = 175788
traniter = 175322
tranpoints = 58534
accept = 46081
rejected = 12453
matrix size = 125
fillins = 53
solver = Normal
Matrix Compiler1: 10.50 KB object code size  5.8/4.6/[1.6]
Matrix Compiler2: 12.13 KB object code size  6.7/6.7/[6.8]

