Circuit: * C:\Users\yurra\Documents\memristive-brain\test-circuits\LTSPICE\combined_sch\Draft1.asc

V6: both pins shorted together -- ignoring.
WARNING: Node NC_01 is floating.

Direct Newton iteration failed to find .op point.  (Use ".option noopiter" to skip.)
Starting Gmin stepping
Gmin = 10
Gmin = 1.07374
Gmin = 0.115292
Gmin = 0.0123794
Gmin = 0.00132923
Gmin = 0.000142725
Gmin = 1.5325e-005
Gmin = 1.6455e-006
Gmin = 1.76685e-007
Gmin = 1.89714e-008
Gmin = 2.03704e-009
Gmin = 2.18725e-010
Gmin = 2.34854e-011
Gmin = 2.52173e-012
Gmin = 2.70769e-013
Gmin = 0
Gmin stepping succeeded in finding the operating point.


Date: Fri Jun 22 15:54:46 2018
Total elapsed time: 5.803 seconds.

tnom = 27
temp = 27
method = modified trap
totiter = 339961
traniter = 339522
tranpoints = 117265
accept = 94128
rejected = 23137
matrix size = 66
fillins = 0
solver = Normal
Thread vector: 10.8/6.6[3] 4.0/2.3[3] 1.5/1.7[1] 0.7/2.0[1]  2592/500
Matrix Compiler1: 2.44 KB object code size  2.4/0.9/[0.6]
Matrix Compiler2: 5.41 KB object code size  1.6/2.1/[0.6]

