Circuit: * C:\Users\yurra\Documents\memristive-brain\test-circuits\LTSPICE\combined_sch\Draft2.asc

WARNING: Node NC_01 is floating.

Direct Newton iteration failed to find .op point.  (Use ".option noopiter" to skip.)
Starting Gmin stepping
Gmin = 10
Gmin = 1.07374
Gmin = 0.115292
Gmin = 0.0123794
Gmin = 0.00132923
Gmin = 0.000142725
Gmin = 1.5325e-005
Gmin = 1.6455e-006
Gmin = 1.76685e-007
Gmin = 1.89714e-008
Gmin = 2.03704e-009
Gmin = 2.18725e-010
Gmin = 2.34854e-011
Gmin = 2.52173e-012
Gmin = 2.70769e-013
Gmin = 0
Gmin stepping succeeded in finding the operating point.


Date: Thu Jun 28 14:06:47 2018
Total elapsed time: 7.148 seconds.

tnom = 27
temp = 27
method = modified trap
totiter = 98829
traniter = 98344
tranpoints = 31581
accept = 22780
rejected = 8801
matrix size = 154
fillins = 180
solver = Normal
Thread vector: 53.1/26.9[4] 16.1/7.8[4] 3.9/4.5[1] 2.4/2.5[1]  2592/500
Matrix Compiler1: 16.75 KB object code size  15.4/6.0/[2.6]
Matrix Compiler2: 19.74 KB object code size  6.2/6.2/[2.3]

