Circuit: * C:\Users\yurra\Documents\memristive-brain\test-circuits\LTSPICE\combined_sch\Draft2.asc

WARNING: Node NC_01 is floating.

Direct Newton iteration failed to find .op point.  (Use ".option noopiter" to skip.)
Starting Gmin stepping
Gmin = 10
Gmin = 1.07374
Gmin = 0.115292
Gmin = 0.0123794
Gmin = 0.00132923
Gmin = 0.000142725
Gmin = 1.5325e-005
Gmin = 1.6455e-006
Gmin = 1.76685e-007
Gmin = 1.89714e-008
Gmin = 2.03704e-009
Gmin = 2.18725e-010
Gmin = 2.34854e-011
Gmin = 2.52173e-012
Gmin = 2.70769e-013
Gmin = 0
Gmin stepping succeeded in finding the operating point.


Date: Fri Jun 22 16:38:52 2018
Total elapsed time: 9.654 seconds.

tnom = 27
temp = 27
method = modified trap
totiter = 146383
traniter = 145910
tranpoints = 46664
accept = 33542
rejected = 13122
matrix size = 141
fillins = 214
solver = Normal
Thread vector: 44.1/24.8[4] 13.7/9.8[4] 3.8/4.2[1] 2.5/2.5[1]  2592/500
Matrix Compiler1: 17.67 KB object code size  14.5/5.7/[2.6]
Matrix Compiler2: 19.07 KB object code size  4.9/5.6/[2.1]

