Circuit: * C:\Users\yurra\Documents\memristive-brain\test-circuits\LTSPICE\combined_sch\Draft2.asc

Warning: Multiple definitions of model "bc817-40t116" Type: BJT
Warning: Multiple definitions of model "bc817-25t116" Type: BJT
Warning: Multiple definitions of model "bc847bt116" Type: BJT
Warning: Multiple definitions of model "bc807-40t116" Type: BJT
Warning: Multiple definitions of model "bc807-25t116" Type: BJT
Warning: Multiple definitions of model "bc857bt116" Type: BJT
WARNING: Node NC_01 is floating.

Direct Newton iteration failed to find .op point.  (Use ".option noopiter" to skip.)
Starting Gmin stepping
Gmin = 10
Gmin = 1.07374
Gmin = 0.115292
Gmin = 0.0123794
Gmin = 0.00132923
Gmin = 0.000142725
vernier = 0.5
vernier = 0.25
vernier = 0.125
vernier = 0.0625
vernier = 0.03125
vernier = 0.015625
Gmin = 0.000175645
vernier = 0.0208333
vernier = 0.0277778
Gmin = 0.000166108
vernier = 0.037037
vernier = 0.0493827
Gmin = 0.000152065
vernier = 0.0658435
Gmin = 0.000131805
vernier = 0.0877914
vernier = 0.117055
Gmin = 0.000104397
vernier = 0.156073
vernier = 0.208098
Gmin = 7.23341e-005
vernier = 0.104049
vernier = 0.0520245
vernier = 0.0260122
vernier = 0.0130061
vernier = 0.00650306
vernier = 0.00325153
vernier = 0.00162576
vernier = 0.000812882
vernier = 0.000406441
Gmin = 0
Gmin = 0
Gmin stepping failed

Starting source stepping with srcstepmethod=0
Source Step = 3.0303%
vernier = 0.25
Source Step = 0.0177557%
Starting source stepping with srcstepmethod=1
Source Step = 3.0303%
vernier = 0.25
Source stepping failed

Pseudo Transient succeeded in finding the operating point at 525.292 ms.

Date: Tue Jun 12 21:24:11 2018
Total elapsed time: 26.951 seconds.

tnom = 27
temp = 27
method = modified trap
totiter = 223743
traniter = 212410
tranpoints = 65968
accept = 47702
rejected = 18351
matrix size = 135
fillins = 849
solver = Normal
Matrix Compiler1: 58.96 KB object code size  29.5/21.9/[13.4]
Matrix Compiler2: off  [6.4]/10.8/10.3

